# Packages
 &PACKAGES
 useGMRedi=.TRUE.,
 useMNC=.TRUE.,
 usediagnostics=.TRUE.,
 useKPP  =.TRUE.,
 useLAYERS =.TRUE.,
 &
