#================================================= 
#| Ryan's Auto-Generated MITgcm data.layers file | 
#================================================= 
 &LAYERS_PARM01
 layers_taveFreq=0.,
 layers_diagFreq=0.,


 layers_name(1) = 'TH'
 layers_bolus(1)= .TRUE.,
 layers_bounds(1:151,1) = -3.90, -3.60, -3.30, -3.00, -2.70, -2.40, -2.10, -1.80, -1.50, -1.20,
 -0.90, -0.60, -0.30,  0.00,  0.30,  0.60,  0.90,  1.20,  1.50,  1.80,  2.10,  2.40,  2.70,
 3.00,  3.30,  3.60,  3.90,  4.20,  4.50,  4.80,  5.10,  5.40,  5.70,  6.00,  6.30,  6.60,
 6.90,  7.20,  7.50,  7.80,  8.10,  8.40,  8.70,  9.00,  9.30,  9.60,  9.90, 10.20, 10.50,
 10.80, 11.10, 11.40, 11.70, 12.00, 12.30, 12.60, 12.90, 13.20, 13.50, 13.80, 14.10, 14.40,
 14.70, 15.00, 15.30, 15.60, 15.90, 16.20, 16.50, 16.80, 17.10, 17.40, 17.70, 18.00, 18.30,
 18.60, 18.90, 19.20, 19.50, 19.80, 20.10, 20.40, 20.70, 21.00, 21.30, 21.60, 21.90, 22.20,
 22.50, 22.80, 23.10, 23.40, 23.70, 24.00, 24.30, 24.60, 24.90, 25.20, 25.50, 25.80, 26.10,
 26.40, 26.70, 27.00, 27.30, 27.60, 27.90, 28.20, 28.50, 28.80, 29.10, 29.40, 29.70, 30.00,
 30.30, 30.60, 30.90, 31.20, 31.50, 31.80, 32.10, 32.40, 32.70, 33.00, 33.30, 33.60, 33.90,
 34.20, 34.50, 34.80, 35.10, 35.40, 35.70, 36.00, 36.30, 36.60, 36.90, 37.20, 37.50, 37.80,
 38.10, 38.40, 38.70, 39.00, 39.30, 39.60, 39.90, 40.20, 40.50, 40.80, 41.10,


 layers_name(2) = 'RHO' 
 layers_krho(2) = 25,
 layers_bolus(2)= .TRUE.,
 layers_bounds(1:151,2) = 23.80, 23.90, 24.00, 24.10, 24.20, 24.30, 24.40, 24.50,
	24.60, 24.70, 24.80, 24.90, 25.00, 25.10, 25.20, 25.30,	25.40, 25.50,
	25.60, 25.70, 25.80, 25.90, 26.00, 26.10, 26.20, 26.30, 26.40, 26.50,
	26.60, 26.70, 26.80, 26.90, 27.00, 27.10, 27.20, 27.30, 27.40, 27.50,
	27.60, 27.70, 27.80, 27.90, 28.00, 28.10, 28.20, 28.30, 28.40, 28.50,
	28.60, 28.70, 28.80, 28.90, 29.00, 29.10, 29.20, 29.30, 29.40, 29.50,
	29.60, 29.70, 29.80, 29.90, 30.00, 30.10, 30.20, 30.30, 30.40, 30.50,
	30.60, 30.70, 30.80, 30.90, 31.00, 31.10, 31.20, 31.30, 31.40, 31.50,
	31.60, 31.70, 31.80, 31.90, 32.00, 32.10, 32.20, 32.30, 32.40, 32.50,
	32.60, 32.70, 32.80, 32.90, 33.00, 33.10, 33.20, 33.30,	33.40, 33.50,
	33.60, 33.70, 33.80, 33.90, 34.00, 34.10, 34.20, 34.30, 34.40, 34.50,
	34.60, 34.70, 34.80, 34.90, 35.00, 35.10, 35.20, 35.30, 35.40, 35.50,
	35.60, 35.70, 35.80, 35.90, 36.00, 36.10, 36.20, 36.30, 36.40, 36.50,
	36.60, 36.70, 36.80, 36.90, 37.00, 37.10, 37.20, 37.30, 37.40, 37.50,
	37.60, 37.70, 37.80, 37.90, 38.00, 38.10, 38.20, 38.30, 38.40, 38.50,
	38.60, 38.70, 38.80,
 &


